[General]
network = Network
sim-time-limit = 200s

Network.node[{0,1,2,3,4,6,7}].app.interArrivalTime = exponential(1)
Network.node[{0,1,2,3,4,6,7}].app.packetByteSize = 125000
Network.node[{0,1,2,3,4,6,7}].app.destination = 5