[General]
network = Network
sim-time-limit = 200s
Network.queue0.serviceTime=exponential(1)
Network.queue1.serviceTime=exponential(1)
Network.nodeTx.gen.generationInterval=exponential(0.1)
Network.nodeTx.gen.packetByteSize = 12500
Network.nodeTx.traTx.serviceTime=exponential(0.001)
Network.nodeRx.traRx.serviceTime=exponential(0.001)
Network.queue0.bufferSize = 20
Network.queue1.bufferSize = 20
Network.nodeRx.traRx.bufferSize = 20
Network.nodeTx.traTx.bufferSize = 2000000

